@<TRIPOS>MOLECULE
ZDT
119 123 1 0 1
SMALL
USER_CHARGES
@<TRIPOS>ATOM
       1 O1          -3.4500    -8.6460    -3.2160 os            1 ZDT       -0.344200
       2 C1          -4.6380    -9.2700    -2.9620 c2            1 ZDT        0.054600
       3 C2          -5.0330    -9.6000    -1.7260 c2            1 ZDT       -0.243800
       4 C3          -6.3010   -10.3400    -1.3740 c3            1 ZDT        0.192700
       5 H1          -6.0120   -11.2250    -0.7940 h1            1 ZDT        0.037500
       6 O2          -6.9610   -10.8420    -2.5380 os            1 ZDT       -0.413300
       7 C4          -6.3600   -12.0440    -2.9920 c3            1 ZDT        0.109400
       8 C5          -7.3240    -9.5150    -0.5400 c3            1 ZDT       -0.059700
       9 H2          -8.2140   -10.1540    -0.4640 hc            1 ZDT        0.075400
      10 C6          -6.7880    -9.2810     0.8790 c3            1 ZDT       -0.097300
      11 C7          -7.7630    -8.1750    -1.2100 c3            1 ZDT        0.161600
      12 H3          -6.8730    -7.5450    -1.3120 h1            1 ZDT        0.082600
      13 O3          -8.2610    -8.4220    -2.5270 os            1 ZDT       -0.431300
      14 C8          -8.0280    -7.4340    -3.4390 c             1 ZDT        0.655800
      15 O4          -7.0770    -6.6640    -3.4460 o             1 ZDT       -0.547700
      16 C9          -9.1260    -7.4200    -4.4590 c3            1 ZDT       -0.145500
      17 C10         -8.8540    -7.3630    -0.4370 c3            1 ZDT       -0.100800
      18 H4          -8.4520    -7.1200     0.5550 hc            1 ZDT        0.056900
      19 C11        -10.1200    -8.2230    -0.2520 c3            1 ZDT       -0.095000
      20 C12         -9.2170    -6.0090    -1.1380 c3            1 ZDT        0.130300
      21 H5         -10.0550    -6.1800    -1.8250 h1            1 ZDT        0.073100
      22 O5          -8.1030    -5.5910    -1.9340 oh            1 ZDT       -0.609700
      23 C13         -9.5530    -4.8270    -0.1610 c3            1 ZDT       -0.112700
      24 H6          -8.6710    -4.6820     0.4770 hc            1 ZDT        0.053000
      25 C14        -10.7490    -5.1460     0.7430 c3            1 ZDT       -0.088700
      26 C15         -9.7720    -3.4930    -0.9430 c3            1 ZDT        0.149400
      27 H7          -8.8730    -3.2890    -1.5360 h1            1 ZDT        0.056700
      28 O6         -10.8500    -3.7160    -1.8610 oh            1 ZDT       -0.604200
      29 C16        -10.0810    -2.2210    -0.0960 c3            1 ZDT       -0.036200
      30 H8         -11.1040    -2.2980     0.2970 hc            1 ZDT        0.074500
      31 C17         -9.1240    -2.0690     1.0940 c3            1 ZDT       -0.095400
      32 C18        -10.0920    -1.0010    -1.0110 c2            1 ZDT       -0.125100
      33 C19         -9.3410     0.1080    -0.9130 ce            1 ZDT       -0.177600
      34 C20         -9.3700     1.1890    -1.8770 ce            1 ZDT       -0.095200
      35 C21         -9.0660     1.1140    -3.1870 cf            1 ZDT       -0.158300
      36 C22         -9.1670     2.2880    -4.1120 c3            1 ZDT       -0.059000
      37 C23         -8.6170    -0.1680    -3.8240 c             1 ZDT        0.705800
      38 O7          -9.2310    -0.6080    -4.7890 o             1 ZDT       -0.588600
      39 N1          -7.4820    -0.6870    -3.2170 n             1 ZDT       -0.458100
      40 C24         -6.8410    -1.9180    -3.4900 ca            1 ZDT        0.082300
      41 C25         -7.2370    -2.8140    -4.4880 ca            1 ZDT        0.087100
      42 O8          -8.2700    -2.5410    -5.3270 oh            1 ZDT       -0.471000
      43 C26         -5.7540    -2.2500    -2.6760 ca            1 ZDT       -0.108400
      44 C27         -5.2860    -1.3260    -1.5880 c3            1 ZDT        0.200000
      45 N2          -4.2930    -0.4010    -2.0590 n3            1 ZDT       -0.570500
      46 N3          -4.2330     0.6760    -1.1950 n3            1 ZDT       -0.498000
      47 C28         -3.6700     1.8450    -1.8770 c3            1 ZDT        0.143600
      48 C29         -3.5790     3.0400    -0.9220 c3            1 ZDT        0.172000
      49 N4          -2.7830     2.7010     0.2650 n3            1 ZDT       -0.736000
      50 C30         -2.7000     3.8400     1.1770 c3            1 ZDT        0.158900
      51 C31         -3.3490     1.5290     0.9450 c3            1 ZDT        0.172000
      52 C32         -3.4390     0.3350    -0.0110 c3            1 ZDT        0.143600
      53 C33         -5.0790    -3.4600    -2.8420 ca            1 ZDT        0.100600
      54 O9          -4.0280    -3.6860    -2.0040 oh            1 ZDT       -0.522000
      55 C34         -5.4720    -4.3700    -3.8390 ca            1 ZDT        0.037200
      56 C35         -6.5640    -4.0370    -4.6780 ca            1 ZDT       -0.069600
      57 C36         -6.9710    -4.9390    -5.6890 ca            1 ZDT        0.209300
      58 O10         -8.0220    -4.6800    -6.5290 oh            1 ZDT       -0.497600
      59 C37         -6.3190    -6.1590    -5.8910 ca            1 ZDT       -0.192100
      60 C38         -6.7500    -7.1060    -6.9590 c3            1 ZDT       -0.045300
      61 C39         -5.2580    -6.4720    -5.0680 ca            1 ZDT        0.244800
      62 O11         -4.5430    -7.6380    -5.1730 os            1 ZDT       -0.326800
      63 C40         -4.8540    -5.6050    -4.0690 ca            1 ZDT       -0.272100
      64 C41         -3.7540    -6.2780    -3.4130 c             1 ZDT        0.572200
      65 O12         -3.1560    -5.8830    -2.4310 o             1 ZDT       -0.514700
      66 C42         -3.5090    -7.5740    -4.1610 c3            1 ZDT        0.255700
      67 C43         -2.1590    -7.5110    -4.8700 c3            1 ZDT       -0.094500
      68 H9          -5.2020    -9.5140    -3.8490 h4            1 ZDT        0.156300
      69 H10         -4.3870    -9.3320    -0.8930 ha            1 ZDT        0.142900
      70 H11         -6.8860   -12.4000    -3.8800 h1            1 ZDT        0.033900
      71 H12         -6.4050   -12.7940    -2.2000 h1            1 ZDT        0.033900
      72 H13         -5.3170   -11.8430    -3.2440 h1            1 ZDT        0.033900
      73 H14         -7.5120    -8.7050     1.4490 hc            1 ZDT        0.041000
      74 H15         -5.8510    -8.7350     0.8260 hc            1 ZDT        0.041000
      75 H16         -6.6230   -10.2390     1.3650 hc            1 ZDT        0.041000
      76 H17         -9.9290    -6.7550    -4.1300 hc            1 ZDT        0.069200
      77 H18         -9.5030    -8.4340    -4.6110 hc            1 ZDT        0.069200
      78 H19         -8.7330    -7.0490    -5.4100 hc            1 ZDT        0.069200
      79 H20        -10.8650    -7.6480     0.2850 hc            1 ZDT        0.043700
      80 H21         -9.8650    -9.1130     0.3140 hc            1 ZDT        0.043700
      81 H22        -10.5040    -8.5050    -1.2260 hc            1 ZDT        0.043700
      82 H23         -7.3590    -5.4860    -1.3240 ho            1 ZDT        0.415800
      83 H24        -10.9440    -4.3020     1.4000 hc            1 ZDT        0.041700
      84 H25        -10.5280    -6.0260     1.3410 hc            1 ZDT        0.041700
      85 H26        -11.6270    -5.3370     0.1300 hc            1 ZDT        0.041700
      86 H27        -10.5630    -4.4360    -2.4400 ho            1 ZDT        0.407500
      87 H28         -9.3790    -1.1710     1.6510 hc            1 ZDT        0.037900
      88 H29         -8.1030    -1.9910     0.7300 hc            1 ZDT        0.037900
      89 H30         -9.2120    -2.9350     1.7430 hc            1 ZDT        0.037900
      90 H31        -10.7950    -1.0600    -1.8410 ha            1 ZDT        0.146700
      91 H32         -8.6550     0.2560    -0.0860 ha            1 ZDT        0.130200
      92 H33         -9.6420     2.1530    -1.4510 ha            1 ZDT        0.132300
      93 H34         -8.2200     2.8230    -4.1260 hc            1 ZDT        0.053000
      94 H35         -9.9570     2.9540    -3.7710 hc            1 ZDT        0.053000
      95 H36         -9.4040     1.9400    -5.1160 hc            1 ZDT        0.053000
      96 H37         -7.0620    -0.1150    -2.4890 hn            1 ZDT        0.334600
      97 H38         -8.4010    -3.2740    -5.9520 ho            1 ZDT        0.427300
      98 H39         -6.1250    -0.7460    -1.1880 h1            1 ZDT        0.057700
      99 H40         -4.8530    -1.8880    -0.7550 h1            1 ZDT        0.057700
     100 H41         -3.3690    -0.8460    -2.0840 hn            1 ZDT        0.337600
     101 H42         -2.6710     1.6290    -2.2830 h1            1 ZDT        0.046100
     102 H43         -4.3100     2.1260    -2.7230 h1            1 ZDT        0.046100
     103 H44         -3.1110     3.8750    -1.4570 h1            1 ZDT        0.037300
     104 H45         -4.5900     3.3610    -0.6360 h1            1 ZDT        0.037300
     105 H46         -2.1070     3.5570     2.0400 h1            1 ZDT        0.032100
     106 H47         -3.7020     4.1170     1.4890 h1            1 ZDT        0.032100
     107 H48         -2.2310     4.6720     0.6610 h1            1 ZDT        0.032100
     108 H49         -2.7090     1.2470     1.7900 h1            1 ZDT        0.037300
     109 H50         -4.3450     1.7540     1.3500 h1            1 ZDT        0.037300
     110 H51         -2.4250     0.0140    -0.2880 h1            1 ZDT        0.046100
     111 H52         -3.9090    -0.5010     0.5230 h1            1 ZDT        0.046100
     112 H53         -3.6260    -4.5480    -2.1970 ho            1 ZDT        0.443400
     113 H54         -8.1380    -5.4170    -7.1460 ho            1 ZDT        0.431300
     114 H55         -6.2170    -6.8950    -7.8940 hc            1 ZDT        0.049300
     115 H56         -6.5520    -8.1470    -6.6730 hc            1 ZDT        0.049300
     116 H57         -7.8290    -7.0280    -7.1480 hc            1 ZDT        0.049300
     117 H58         -1.9800    -8.4410    -5.4080 hc            1 ZDT        0.065700
     118 H59         -1.3640    -7.3640    -4.1390 hc            1 ZDT        0.065700
     119 H60         -2.1500    -6.6830    -5.5770 hc            1 ZDT        0.065700
@<TRIPOS>BOND
       1        1       66 1
       2        1        2 1
       3        2        3 1
       4        3        4 1
       5        4        5 1
       6        4        6 1
       7        6        7 1
       8        4        8 1
       9        8        9 1
      10        8       10 1
      11        8       11 1
      12       11       12 1
      13       11       13 1
      14       13       14 1
      15       14       15 1
      16       14       16 1
      17       11       17 1
      18       17       18 1
      19       17       19 1
      20       17       20 1
      21       20       21 1
      22       20       22 1
      23       20       23 1
      24       23       24 1
      25       23       25 1
      26       23       26 1
      27       26       27 1
      28       26       28 1
      29       26       29 1
      30       29       30 1
      31       29       31 1
      32       29       32 1
      33       32       33 1
      34       33       34 1
      35       34       35 1
      36       35       36 1
      37       35       37 1
      38       37       38 1
      39       37       39 1
      40       39       40 1
      41       40       41 1
      42       41       56 1
      43       41       42 1
      44       40       43 1
      45       43       44 1
      46       44       45 1
      47       45       46 1
      48       46       52 1
      49       46       47 1
      50       47       48 1
      51       48       49 1
      52       49       50 1
      53       49       51 1
      54       51       52 1
      55       43       53 1
      56       53       54 1
      57       53       55 1
      58       55       63 1
      59       55       56 1
      60       56       57 1
      61       57       58 1
      62       57       59 1
      63       59       60 1
      64       59       61 1
      65       61       62 1
      66       62       66 1
      67       61       63 1
      68       63       64 1
      69       64       65 1
      70       64       66 1
      71       66       67 1
      72        2       68 1
      73        3       69 1
      74        7       70 1
      75        7       71 1
      76        7       72 1
      77       10       73 1
      78       10       74 1
      79       10       75 1
      80       16       76 1
      81       16       77 1
      82       16       78 1
      83       19       79 1
      84       19       80 1
      85       19       81 1
      86       22       82 1
      87       25       83 1
      88       25       84 1
      89       25       85 1
      90       28       86 1
      91       31       87 1
      92       31       88 1
      93       31       89 1
      94       32       90 1
      95       33       91 1
      96       34       92 1
      97       36       93 1
      98       36       94 1
      99       36       95 1
     100       39       96 1
     101       42       97 1
     102       44       98 1
     103       44       99 1
     104       45      100 1
     105       47      101 1
     106       47      102 1
     107       48      103 1
     108       48      104 1
     109       50      105 1
     110       50      106 1
     111       50      107 1
     112       51      108 1
     113       51      109 1
     114       52      110 1
     115       52      111 1
     116       54      112 1
     117       58      113 1
     118       60      114 1
     119       60      115 1
     120       60      116 1
     121       67      117 1
     122       67      118 1
     123       67      119 1
@<TRIPOS>SUBSTRUCTURE
       1 ZDT             1 RESIDUE    0 **** ROOT      0
