@<TRIPOS>MOLECULE
*****
   59    63     0     0     0
SMALL
NO_CHARGES

@<TRIPOS>ATOM
      1 O1         -2.6868   -6.3274    0.0000 O.3       1 <0>         0.0000
      2 C1         -3.1893   -5.4359    0.0000 C.2       1 <0>         0.0000
      3 C2         -2.6691   -4.5560    0.0000 C.2       1 <0>         0.0000
      4 C3         -2.6579   -3.5399    0.0000 C.3       1 <0>         0.0000
      5 O2         -3.5177   -3.0292    0.0000 O.3       1 <0>         0.0000
      6 C4         -4.3898   -3.5185    0.0000 C.3       1 <0>         0.0000
      7 C5         -1.7718   -3.0444    0.0000 C.3       1 <0>         0.0000
      8 C6         -0.2573   -3.9211    0.0000 C.3       1 <0>         0.0000
      9 C7         -1.7833   -2.0400    0.0000 C.3       1 <0>         0.0000
     10 O3         -3.3038   -1.1735    0.0000 O.3       1 <0>         0.0000
     11 C8         -3.3094   -0.1735    0.0000 C.2       1 <0>         0.0000
     12 O4         -2.4462    0.3313    0.0000 O.2       1 <0>         0.0000
     13 C9         -4.1782    0.3216    0.0000 C.3       1 <0>         0.0000
     14 C10        -0.8993   -1.5299    0.0000 C.3       1 <0>         0.0000
     15 C11         0.6148   -2.4074    0.0000 C.3       1 <0>         0.0000
     16 C12        -0.8962   -0.5056    0.0000 C.3       1 <0>         0.0000
     17 O5         -1.7590    0.0000    0.0000 O.3       1 <0>         0.0000
     18 C13         0.0000    0.0000    0.0000 C.3       1 <0>         0.0000
     19 C14         0.0142    0.9999    0.0000 C.3       1 <0>         0.0000
     20 C15         0.8772   -0.5282    0.0000 C.3       1 <0>         0.0000
     21 O6          0.8633   -1.5281    0.0000 O.3       1 <0>         0.0000
     22 C16         1.7684   -0.0248    0.0000 C.3       1 <0>         0.0000
     23 C17         1.7766    0.9752    0.0000 C.3       1 <0>         0.0000
     24 C18         2.6309   -0.5308    0.0000 C.2       1 <0>         0.0000
     25 C19         3.5284   -0.0117    0.0000 C.2       1 <0>         0.0000
     26 C20         4.4259   -0.5267    0.0000 C.2       1 <0>         0.0000
     27 C21         4.4258   -1.5606    0.0000 C.2       1 <0>         0.0000
     28 C22         5.2925   -2.0594    0.0000 C.3       1 <0>         0.0000
     29 C23         3.5361   -2.0776    0.0000 C.2       1 <0>         0.0000
     30 O7          2.6715   -1.5751    0.0000 O.2       1 <0>         0.0000
     31 N1          3.5272   -3.1065    0.0000 N.am      1 <0>         0.0000
     32 C24         2.6292   -3.6105    0.0000 C.2       1 <0>         0.0000
     33 C25         1.7448   -3.0825    0.0000 C.2       1 <0>         0.0000
     34 O8          1.7594   -2.0826    0.0000 O.3       1 <0>         0.0000
     35 C26         2.6191   -4.6375    0.0000 C.2       1 <0>         0.0000
     36 C27         3.4785   -5.1489    0.0000 C.2       1 <0>         0.0000
     37 N2          4.3510   -4.6603    0.0000 N.pl3     1 <0>         0.0000
     38 N3          5.2104   -5.1717    0.0000 N.3       1 <0>         0.0000
     39 C28         5.2029   -6.1766    0.0000 C.3       1 <0>         0.0000
     40 C29         6.0667   -6.6906    0.0000 C.3       1 <0>         0.0000
     41 N4          6.9379   -6.1996    0.0000 N.3       1 <0>         0.0000
     42 C30         7.7972   -6.7110    0.0000 C.3       1 <0>         0.0000
     43 C31         6.9538   -5.1998    0.0000 C.3       1 <0>         0.0000
     44 C32         6.0900   -4.6858    0.0000 C.3       1 <0>         0.0000
     45 C33         1.7169   -5.1387    0.0000 C.2       1 <0>         0.0000
     46 O9          1.6906   -6.1384    0.0000 O.2       1 <0>         0.0000
     47 C34         0.8456   -4.5928    0.0000 C.2       1 <0>         0.0000
     48 C35         0.8504   -3.5817    0.0000 C.2       1 <0>         0.0000
     49 C36        -0.0228   -3.0663    0.0000 C.2       1 <0>         0.0000
     50 O10        -0.0032   -1.3164    0.0000 O.2       1 <0>         0.0000
     51 C37        -0.9022   -3.5591    0.0000 C.2       1 <0>         0.0000
     52 C38        -2.4052   -2.6627    0.0000 C.3       1 <0>         0.0000
     53 C39        -0.9180   -4.5756    0.0000 C.2       1 <0>         0.0000
     54 O11        -1.6790   -5.2513    0.0000 O.3       1 <0>         0.0000
     55 C40        -0.0402   -5.0905    0.0000 C.2       1 <0>         0.0000
     56 C41        -0.2587   -6.0846    0.0000 C.2       1 <0>         0.0000
     57 O12         0.4053   -6.8323    0.0000 O.3       1 <0>         0.0000
     58 C42        -1.2715   -6.1840    0.0000 C.3       1 <0>         0.0000
     59 C43        -1.1723   -7.1791    0.0000 C.3       1 <0>         0.0000
@<TRIPOS>BOND
     1    1   58 1
     2    1    2 1
     3    2    3 2
     4    3    4 1
     5    4    5 1
     6    5    6 1
     7    4    7 1
     8    7    8 1
     9    7    9 1
    10    9   10 1
    11   10   11 1
    12   11   12 2
    13   11   13 1
    14    9   14 1
    15   14   15 1
    16   14   16 1
    17   16   17 1
    18   16   18 1
    19   18   19 1
    20   18   20 1
    21   20   21 1
    22   20   22 1
    23   22   23 1
    24   22   24 1
    25   24   25 2
    26   25   26 1
    27   26   27 2
    28   27   28 1
    29   27   29 1
    30   29   30 2
    31   29   31 am
    32   31   32 1
    33   32   33 2
    34   33   48 1
    35   33   34 1
    36   32   35 1
    37   35   36 2
    38   36   37 1
    39   37   38 1
    40   38   44 1
    41   38   39 1
    42   39   40 1
    43   40   41 1
    44   41   42 1
    45   41   43 1
    46   43   44 1
    47   35   45 1
    48   45   46 2
    49   45   47 1
    50   47   55 1
    51   47   48 2
    52   48   49 1
    53   49   50 2
    54   49   51 1
    55   51   52 1
    56   51   53 2
    57   53   54 1
    58   54   58 1
    59   53   55 1
    60   55   56 2
    61   56   57 1
    62   56   58 1
    63   58   59 1
