@<TRIPOS>MOLECULE
/Users/bannanc/Google Drive/gitHub/SAMPL5_partitioning/PredictionAnalysis_DC/tautomerExploration/SAMPL5_083/SAMPL5_083_c10_c0.xyz
117   121    1
SMALL
USER_CHARGES


@<TRIPOS>ATOM
      1 C1         -3.9249    2.1261   -4.1259 C.3       1 UNK         0.0000 
      2 C2         -3.4982    2.2688   -5.5931 C.3       1 UNK         0.0000 
      3 H3         -3.1113    3.2929   -5.7464 H         1 UNK         0.0000 
      4 C4         -2.4017    1.3197   -6.0001 C.2       1 UNK         0.0000 
      5 C5         -1.9304    0.2472   -5.3157 C.2       1 UNK         0.0000 
      6 C6         -0.8657   -0.5589   -5.8760 C.2       1 UNK         0.0000 
      7 C7         -0.1790   -1.6273   -5.3920 C.2       1 UNK         0.0000 
      8 C8         -0.3052   -2.2597   -4.0444 C.2       1 UNK         0.0000 
      9 O9          0.7188   -2.5751   -3.4161 O.2       1 UNK         0.0000 
     10 N10        -1.5364   -2.5184   -3.4408 N.am      1 UNK         0.0000 
     11 C11        -2.8229   -2.6756   -4.0490 C.ar      1 UNK         0.0000 
     12 C12        -2.9650   -3.4042   -5.2300 C.ar      1 UNK         0.0000 
     13 C13        -4.2675   -3.5680   -5.8093 C.ar      1 UNK         0.0000 
     14 C14        -4.3717   -4.2345   -7.1195 C.ar      1 UNK         0.0000 
     15 C15        -5.6412   -4.3505   -7.7731 C.ar      1 UNK         0.0000 
     16 C16        -6.7424   -3.9105   -7.0623 C.ar      1 UNK         0.0000 
     17 C17        -6.7013   -3.3511   -5.7550 C.ar      1 UNK         0.0000 
     18 C18        -5.4278   -3.1396   -5.1101 C.ar      1 UNK         0.0000 
     19 C19        -5.2845   -2.4751   -3.8583 C.ar      1 UNK         0.0000 
     20 O20        -6.3345   -2.0495   -3.1350 O.3       1 UNK         0.0000 
     21 C21        -3.9790   -2.2064   -3.3449 C.ar      1 UNK         0.0000 
     22 C22        -3.9530   -1.4264   -2.1432 C.3       1 UNK         0.0000 
     23 N23        -2.8733   -0.9847   -1.5307 N.3       1 UNK         0.0000 
     24 N24        -2.7970   -0.3435   -0.3076 N.3       1 UNK         0.0000 
     25 C25        -4.0779    0.0689    0.2742 C.3       1 UNK         0.0000 
     26 C26        -3.8272    0.6437    1.6672 C.3       1 UNK         0.0000 
     27 N27        -2.8630    1.7467    1.6210 N.3       1 UNK         0.0000 
     28 C28        -1.5859    1.2554    1.0941 C.3       1 UNK         0.0000 
     29 C29        -1.7700    0.7230   -0.3202 C.3       1 UNK         0.0000 
     30 C30        -2.6944    2.3592    2.9415 C.3       1 UNK         0.0000 
     31 C31        -8.0332   -3.1353   -5.3491 C.2       1 UNK         0.0000 
     32 O32        -8.5104   -2.6873   -4.2657 O.2       1 UNK         0.0000 
     33 C33        -8.9523   -3.5644   -6.5171 C.3       1 UNK         0.0000 
     34 O34        -8.0159   -3.9947   -7.5646 O.3       1 UNK         0.0000 
     35 O35        -9.7634   -2.5113   -7.0197 O.3       1 UNK         0.0000 
     36 C36        -9.2193   -1.2388   -7.0650 C.2       1 UNK         0.0000 
     37 C37        -9.9055   -0.1952   -7.5432 C.2       1 UNK         0.0000 
     38 C38        -9.3465    1.2029   -7.4660 C.3       1 UNK         0.0000 
     39 H39        -8.3266    1.1292   -7.0441 H         1 UNK         0.0000 
     40 C40        -9.2418    1.9121   -8.8312 C.3       1 UNK         0.0000 
     41 H41        -8.5556    1.2823   -9.4159 H         1 UNK         0.0000 
     42 C42        -8.5423    3.2971   -8.7892 C.3       1 UNK         0.0000 
     43 H43        -8.2843    3.5672   -9.8253 H         1 UNK         0.0000 
     44 C44        -7.2622    3.4417   -7.9152 C.3       1 UNK         0.0000 
     45 H45        -7.4299    2.9184   -6.9606 H         1 UNK         0.0000 
     46 C46        -6.0408    2.8119   -8.6465 C.3       1 UNK         0.0000 
     47 H47        -5.9140    3.3852   -9.5827 H         1 UNK         0.0000 
     48 C48        -4.6836    2.8969   -7.8848 C.3       1 UNK         0.0000 
     49 H49        -4.5204    3.9562   -7.6312 H         1 UNK         0.0000 
     50 C50        -4.7481    2.1473   -6.5295 C.3       1 UNK         0.0000 
     51 H51        -5.5859    2.5835   -5.9655 H         1 UNK         0.0000 
     52 O52        -5.1288    0.7513   -6.7009 O.3       1 UNK         0.0000 
     53 C53        -3.5441    2.4681   -8.8246 C.3       1 UNK         0.0000 
     54 O54        -6.2812    1.4499   -9.0638 O.3       1 UNK         0.0000 
     55 C55        -6.9731    4.9198   -7.5959 C.3       1 UNK         0.0000 
     56 O56        -9.5350    4.2894   -8.3395 O.3       1 UNK         0.0000 
     57 C57        -9.8752    5.2979   -9.1714 C.2       1 UNK         0.0000 
     58 O58        -9.4013    5.4713  -10.2901 O.2       1 UNK         0.0000 
     59 C59       -10.9385    6.1695   -8.5522 C.3       1 UNK         0.0000 
     60 C60       -10.5819    1.9955   -9.5799 C.3       1 UNK         0.0000 
     61 O61       -10.1462    2.0240   -6.5822 O.3       1 UNK         0.0000 
     62 C62        -9.9933    1.6808   -5.2038 C.3       1 UNK         0.0000 
     63 C63        -9.8739   -4.7158   -6.1721 C.3       1 UNK         0.0000 
     64 C64        -5.7285   -4.9634   -9.1411 C.3       1 UNK         0.0000 
     65 O65        -3.3046   -4.6832   -7.6898 O.3       1 UNK         0.0000 
     66 O66        -1.8843   -3.9408   -5.8268 O.3       1 UNK         0.0000 
     67 C67         0.9629   -2.2070   -6.1948 C.3       1 UNK         0.0000 
     68 H68        -4.4109    1.1557   -3.9448 H         1 UNK         0.0000 
     69 H69        -3.0603    2.2145   -3.4529 H         1 UNK         0.0000 
     70 H70        -4.6419    2.9142   -3.8575 H         1 UNK         0.0000 
     71 H71        -1.9303    1.5245   -6.9659 H         1 UNK         0.0000 
     72 H72        -2.3413   -0.0043   -4.3357 H         1 UNK         0.0000 
     73 H73        -0.5396   -0.2169   -6.8649 H         1 UNK         0.0000 
     74 H74        -1.3866   -3.1024   -2.6098 H         1 UNK         0.0000 
     75 H75        -4.9126   -1.1696   -1.7006 H         1 UNK         0.0000 
     76 H76        -1.9564   -1.2196   -1.9364 H         1 UNK         0.0000 
     77 H77        -4.5774    0.8188   -0.3697 H         1 UNK         0.0000 
     78 H78        -4.7291   -0.8115    0.3646 H         1 UNK         0.0000 
     79 H79        -4.7843    1.0159    2.0580 H         1 UNK         0.0000 
     80 H80        -3.4802   -0.1712    2.3401 H         1 UNK         0.0000 
     81 H81        -0.8648    2.0843    1.0602 H         1 UNK         0.0000 
     82 H82        -1.1576    0.4565    1.7390 H         1 UNK         0.0000 
     83 H83        -2.0797    1.5407   -0.9964 H         1 UNK         0.0000 
     84 H84        -0.8273    0.2928   -0.6859 H         1 UNK         0.0000 
     85 H85        -2.3083    1.6433    3.6982 H         1 UNK         0.0000 
     86 H86        -3.6606    2.7462    3.2938 H         1 UNK         0.0000 
     87 H87        -1.9897    3.1995    2.8692 H         1 UNK         0.0000 
     88 H88        -8.2040   -1.1386   -6.6704 H         1 UNK         0.0000 
     89 H89       -10.9222   -0.3321   -7.9204 H         1 UNK         0.0000 
     90 H90        -4.3031    0.2284   -6.7614 H         1 UNK         0.0000 
     91 H91        -3.6819    2.9321   -9.8125 H         1 UNK         0.0000 
     92 H92        -3.5171    1.3795   -8.9751 H         1 UNK         0.0000 
     93 H93        -2.5660    2.7935   -8.4475 H         1 UNK         0.0000 
     94 H94        -6.0011    0.8955   -8.2953 H         1 UNK         0.0000 
     95 H95        -6.7472    5.4889   -8.5117 H         1 UNK         0.0000 
     96 H96        -6.1153    5.0198   -6.9188 H         1 UNK         0.0000 
     97 H97        -7.8320    5.3890   -7.1026 H         1 UNK         0.0000 
     98 H98       -10.9587    7.1437   -9.0523 H         1 UNK         0.0000 
     99 H99       -10.7742    6.2927   -7.4749 H         1 UNK         0.0000 
    100 H100      -11.9179    5.6854   -8.6870 H         1 UNK         0.0000 
    101 H101      -10.9594    0.9915   -9.8173 H         1 UNK         0.0000 
    102 H102      -10.4597    2.5331  -10.5319 H         1 UNK         0.0000 
    103 H103      -11.3440    2.5190   -8.9879 H         1 UNK         0.0000 
    104 H104      -10.3441    0.6572   -4.9872 H         1 UNK         0.0000 
    105 H105      -10.5948    2.3972   -4.6302 H         1 UNK         0.0000 
    106 H106       -8.9369    1.7631   -4.8864 H         1 UNK         0.0000 
    107 H107      -10.4719   -4.9855   -7.0524 H         1 UNK         0.0000 
    108 H108      -10.5418   -4.4158   -5.3545 H         1 UNK         0.0000 
    109 H109       -9.2862   -5.5859   -5.8531 H         1 UNK         0.0000 
    110 H110       -4.9521   -4.5489   -9.8000 H         1 UNK         0.0000 
    111 H111       -5.5619   -6.0521   -9.1001 H         1 UNK         0.0000 
    112 H112       -6.7113   -4.7862   -9.5945 H         1 UNK         0.0000 
    113 H113       -2.2789   -4.3506   -6.7148 H         1 UNK         0.0000 
    114 H114        1.9288   -2.0051   -5.7078 H         1 UNK         0.0000 
    115 H115        0.9821   -1.7751   -7.2033 H         1 UNK         0.0000 
    116 H116        0.8661   -3.2992   -6.2805 H         1 UNK         0.0000 
    117 H117       -7.2546   -2.3044   -3.5503 H         1 UNK         0.0000 
@<TRIPOS>BOND
     1    1   68 1    
     2    1   70 1    
     3    1   69 1    
     4    1    2 1    
     5    2    3 1    
     6    2    4 1    
     7    2   50 1    
     8    4    5 2    
     9    4   71 1    
    10    5   72 1    
    11    5    6 1    
    12    6    7 2    
    13    6   73 1    
    14    7    8 1    
    15    7   67 1    
    16    8   10 am   BACKBONE|DICT|INTERRES
    17    8    9 2    
    18   10   74 1    
    19   10   11 1    
    20   11   21 ar   
    21   11   12 ar   
    22   12   13 ar   
    23   12   66 1    
    24   13   18 ar   
    25   13   14 ar   
    26   14   15 ar   
    27   14   65 1    
    28   15   16 ar   
    29   15   64 1    
    30   16   17 ar   
    31   16   34 1    
    32   17   31 1    
    33   17   18 ar   
    34   18   19 ar   
    35   19   21 ar   
    36   19   20 1    
    37   20  117 1    
    38   21   22 1    
    39   22   75 1    
    40   22   23 1    
    41   23   24 1    
    42   23   76 1    
    43   24   25 1    
    44   24   29 1    
    45   25   78 1    
    46   25   26 1    
    47   25   77 1    
    48   26   79 1    
    49   26   80 1    
    50   26   27 1    
    51   27   30 1    
    52   27   28 1    
    53   28   82 1    
    54   28   29 1    
    55   28   81 1    
    56   29   83 1    
    57   29   84 1    
    58   30   86 1    
    59   30   85 1    
    60   30   87 1    
    61   31   32 2    
    62   31   33 1    
    63   33   63 1    
    64   33   34 1    
    65   33   35 1    
    66   35   36 1    
    67   36   88 1    
    68   36   37 2    
    69   37   38 1    
    70   37   89 1    
    71   38   39 1    
    72   38   61 1    
    73   38   40 1    
    74   40   41 1    
    75   40   42 1    
    76   40   60 1    
    77   42   43 1    
    78   42   56 1    
    79   42   44 1    
    80   44   55 1    
    81   44   45 1    
    82   44   46 1    
    83   46   47 1    
    84   46   48 1    
    85   46   54 1    
    86   48   49 1    
    87   48   50 1    
    88   48   53 1    
    89   50   51 1    
    90   50   52 1    
    91   52   90 1    
    92   53   93 1    
    93   53   91 1    
    94   53   92 1    
    95   54   94 1    
    96   55   97 1    
    97   55   96 1    
    98   55   95 1    
    99   56   57 1    
   100   57   59 1    
   101   57   58 2    
   102   59   99 1    
   103   59   98 1    
   104   59  100 1    
   105   60  103 1    
   106   60  101 1    
   107   60  102 1    
   108   61   62 1    
   109   62  104 1    
   110   62  106 1    
   111   62  105 1    
   112   63  109 1    
   113   63  108 1    
   114   63  107 1    
   115   64  111 1    
   116   64  110 1    
   117   64  112 1    
   118   66  113 1    
   119   67  114 1    
   120   67  115 1    
   121   67  116 1    
@<TRIPOS>SUBSTRUCTURE
     1 UNK         1 GROUP             0       ****    0 ROOT    
