@<TRIPOS>MOLECULE
*****
   59    63     0     0     0
SMALL
NO_CHARGES

@<TRIPOS>ATOM
      1 C1          1.7766    0.9752    0.0000 C.3       1 <0>         0.0000
      2 C2          1.7684   -0.0248    0.0000 C.3       1 <0>         0.0000
      3 C3          2.6309   -0.5308    0.0000 C.2       1 <0>         0.0000
      4 C4          3.5284   -0.0117    0.0000 C.2       1 <0>         0.0000
      5 C5          4.4259   -0.5267    0.0000 C.2       1 <0>         0.0000
      6 C6          4.4258   -1.5606    0.0000 C.2       1 <0>         0.0000
      7 C7          3.5361   -2.0776    0.0000 C.2       1 <0>         0.0000
      8 O1          2.6715   -1.5751    0.0000 O.2       1 <0>         0.0000
      9 N1          3.5272   -3.1065    0.0000 N.am      1 <0>         0.0000
     10 C8          2.6292   -3.6105    0.0000 C.ar      1 <0>         0.0000
     11 C9          1.7448   -3.0825    0.0000 C.ar      1 <0>         0.0000
     12 C10         0.8504   -3.5817    0.0000 C.ar      1 <0>         0.0000
     13 C11        -0.0228   -3.0663    0.0000 C.ar      1 <0>         0.0000
     14 C12        -0.9022   -3.5591    0.0000 C.ar      1 <0>         0.0000
     15 C13        -0.9180   -4.5756    0.0000 C.ar      1 <0>         0.0000
     16 C14        -0.0402   -5.0905    0.0000 C.ar      1 <0>         0.0000
     17 C15         0.8456   -4.5928    0.0000 C.ar      1 <0>         0.0000
     18 C16         1.7169   -5.1387    0.0000 C.ar      1 <0>         0.0000
     19 O2          1.6906   -6.1384    0.0000 O.3       1 <0>         0.0000
     20 C17         2.6191   -4.6375    0.0000 C.ar      1 <0>         0.0000
     21 C18         3.4785   -5.1489    0.0000 C.cat     1 <0>         0.0000
     22 N2          4.3510   -4.6603    0.0000 N.pl3     1 <0>         0.0000
     23 N3          5.2104   -5.1717    0.0000 N.3       1 <0>         0.0000
     24 C19         5.2029   -6.1766    0.0000 C.3       1 <0>         0.0000
     25 C20         6.0667   -6.6906    0.0000 C.3       1 <0>         0.0000
     26 N4          6.9379   -6.1996    0.0000 N.4       1 <0>         0.0000
     27 C21         6.9538   -5.1998    0.0000 C.3       1 <0>         0.0000
     28 C22         6.0900   -4.6858    0.0000 C.3       1 <0>         0.0000
     29 C23         7.7972   -6.7110    0.0000 C.3       1 <0>         0.0000
     30 C24        -0.2587   -6.0846    0.0000 C.2       1 <0>         0.0000
     31 O3          0.4053   -6.8323    0.0000 O.2       1 <0>         0.0000
     32 C25        -1.2715   -6.1840    0.0000 C.3       1 <0>         0.0000
     33 O4         -1.6790   -5.2513    0.0000 O.3       1 <0>         0.0000
     34 O5         -2.6868   -6.3274    0.0000 O.3       1 <0>         0.0000
     35 C26        -3.1893   -5.4359    0.0000 C.2       1 <0>         0.0000
     36 C27        -2.6691   -4.5560    0.0000 C.2       1 <0>         0.0000
     37 C28        -2.6579   -3.5399    0.0000 C.3       1 <0>         0.0000
     38 C29        -1.7718   -3.0444    0.0000 C.3       1 <0>         0.0000
     39 C30        -1.7833   -2.0400    0.0000 C.3       1 <0>         0.0000
     40 C31        -0.8993   -1.5299    0.0000 C.3       1 <0>         0.0000
     41 C32        -0.8962   -0.5056    0.0000 C.3       1 <0>         0.0000
     42 C33         0.0000    0.0000    0.0000 C.3       1 <0>         0.0000
     43 C34         0.8772   -0.5282    0.0000 C.3       1 <0>         0.0000
     44 O6          0.8633   -1.5281    0.0000 O.3       1 <0>         0.0000
     45 C35         0.0142    0.9999    0.0000 C.3       1 <0>         0.0000
     46 O7         -1.7590    0.0000    0.0000 O.3       1 <0>         0.0000
     47 C36         0.6148   -2.4074    0.0000 C.3       1 <0>         0.0000
     48 O8         -3.3038   -1.1735    0.0000 O.3       1 <0>         0.0000
     49 C37        -3.3094   -0.1735    0.0000 C.2       1 <0>         0.0000
     50 O9         -2.4462    0.3313    0.0000 O.2       1 <0>         0.0000
     51 C38        -4.1782    0.3216    0.0000 C.3       1 <0>         0.0000
     52 C39        -0.2573   -3.9211    0.0000 C.3       1 <0>         0.0000
     53 O10        -3.5177   -3.0292    0.0000 O.3       1 <0>         0.0000
     54 C40        -4.3898   -3.5185    0.0000 C.3       1 <0>         0.0000
     55 C41        -1.1723   -7.1791    0.0000 C.3       1 <0>         0.0000
     56 C42        -2.4052   -2.6627    0.0000 C.3       1 <0>         0.0000
     57 O11        -0.0032   -1.3164    0.0000 O.3       1 <0>         0.0000
     58 O12         1.7594   -2.0826    0.0000 O.3       1 <0>         0.0000
     59 C43         5.2925   -2.0594    0.0000 C.3       1 <0>         0.0000
@<TRIPOS>BOND
     1    1    2 1
     2    2    3 1
     3    3    4 2
     4    4    5 1
     5    5    6 2
     6    6    7 1
     7    7    8 2
     8    7    9 am
     9    9   10 1
    10   10   11 ar
    11   11   12 ar
    12   12   13 ar
    13   13   14 ar
    14   14   15 ar
    15   15   16 ar
    16   16   17 ar
    17   12   17 ar
    18   17   18 ar
    19   18   19 1
    20   18   20 ar
    21   10   20 ar
    22   20   21 1
    23   21   22 1
    24   22   23 1
    25   23   24 1
    26   24   25 1
    27   25   26 1
    28   26   27 1
    29   27   28 1
    30   23   28 1
    31   26   29 1
    32   16   30 1
    33   30   31 2
    34   30   32 1
    35   32   33 1
    36   15   33 1
    37   32   34 1
    38   34   35 1
    39   35   36 2
    40   36   37 1
    41   37   38 1
    42   38   39 1
    43   39   40 1
    44   40   41 1
    45   41   42 1
    46   42   43 1
    47    2   43 1
    48   43   44 1
    49   42   45 1
    50   41   46 1
    51   40   47 1
    52   39   48 1
    53   48   49 1
    54   49   50 2
    55   49   51 1
    56   38   52 1
    57   37   53 1
    58   53   54 1
    59   32   55 1
    60   14   56 1
    61   13   57 1
    62   11   58 1
    63    6   59 1
