@<TRIPOS>MOLECULE
*****
   16    18     0     0     0
SMALL
NO_CHARGES

@<TRIPOS>ATOM
      1 C1          0.0000    0.0000    0.0000 C.ar      1 <0>         0.0000
      2 C2          0.0000    0.0000    0.0000 C.ar      1 <0>         0.0000
      3 C3          0.0000    0.0000    0.0000 C.ar      1 <0>         0.0000
      4 C4          0.0000    0.0000    0.0000 C.3       1 <0>         0.0000
      5 N1          0.0000    0.0000    0.0000 N.ar      1 <0>         0.0000
      6 C5          0.0000    0.0000    0.0000 C.ar      1 <0>         0.0000
      7 C6          0.0000    0.0000    0.0000 C.ar      1 <0>         0.0000
      8 N2          0.0000    0.0000    0.0000 N.2       1 <0>         0.0000
      9 N3          0.0000    0.0000    0.0000 N.am      1 <0>         0.0000
     10 C7          0.0000    0.0000    0.0000 C.2       1 <0>         0.0000
     11 N4          0.0000    0.0000    0.0000 N.pl3     1 <0>         0.0000
     12 C8          0.0000    0.0000    0.0000 C.2       1 <0>         0.0000
     13 C9          0.0000    0.0000    0.0000 C.3       1 <0>         0.0000
     14 C10         0.0000    0.0000    0.0000 C.2       1 <0>         0.0000
     15 C11         0.0000    0.0000    0.0000 C.2       1 <0>         0.0000
     16 O1          0.0000    0.0000    0.0000 O.2       1 <0>         0.0000
@<TRIPOS>BOND
     1    1    7 ar
     2    1    2 ar
     3    2    3 ar
     4    3    4 1
     5    3    5 ar
     6    5    6 ar
     7    6    7 ar
     8    7   10 2
     9    6    8 2
    10    8    9 1
    11    9   15 am
    12    9   10 1
    13   10   11 1
    14   11   12 1
    15   12   13 1
    16   12   14 2
    17   14   15 1
    18   15   16 2
